/*--------------------------------*- C++ -*----------------------------------*\
  =========                 |
  \\      /  F ield         | OpenFOAM: The Open Source CFD Toolbox
   \\    /   O peration     | Website:  https://openfoam.org
    \\  /    A nd           | Version:  12
     \\/     M anipulation  |
\*---------------------------------------------------------------------------*/
FoamFile
{
    format      ascii;
    class       featureEdgeMesh;
    location    "constant/triSurface";
    object      Avion.eMesh;
}
// * * * * * * * * * * * * * * * * * * * * * * * * * * * * * * * * * * * * * //


// points:

2098
(
(-0.0144 0.00549674 0.515668)
(-0.0144 -0.000499819 0.514939)
(-0.0144 -0.00614788 0.512797)
(-0.0144 -0.0111192 0.509366)
(-0.0144 -0.0151249 0.504845)
(-0.0144 -0.0179321 0.499496)
(-0.0144 -0.0193777 0.493631)
(-0.0144 -0.0193777 0.48759)
(-0.0144 -0.0179321 0.481725)
(-0.0144 -0.0151249 0.476377)
(-0.0144 -0.0111192 0.471855)
(-0.0144 -0.00614788 0.468424)
(-0.0144 -0.000499821 0.466282)
(-0.0144 0.00549674 0.465553)
(0.728603 0.00220014 -0.0543813)
(0.694186 0.0282929 0.0214074)
(0.728603 0.00220015 0.0515012)
(0.446136 0.0947778 -0.125567)
(0.52164 0.0889334 -0.118033)
(0.593599 0.0706202 -0.105598)
(0.593263 0.0498258 -0.126433)
(0.662256 0.0410608 -0.0855262)
(0.727631 -0.00842344 -0.0668057)
(0.556789 0.0636171 -0.133122)
(0.555595 0.0810266 -0.11484)
(0.446136 0.0947778 0.122687)
(0.52164 0.0889334 0.115153)
(0.593599 0.0706202 0.102718)
(0.593263 0.0498258 0.123553)
(0.662256 0.0410608 0.0826461)
(0.727631 -0.00842343 0.0639256)
(0.556789 0.0636182 0.130241)
(0.555595 0.0810273 0.111959)
(-0.897193 0.0828862 0.138477)
(-0.897193 0.0670014 0.146127)
(-0.897193 0.0670014 -0.149007)
(-0.897193 0.0828862 -0.141357)
(0.758671 -0.0358529 -0.0479328)
(0.765523 -0.0632303 -0.039289)
(0.765523 -0.0632309 0.0364082)
(-0.0433462 0.0838605 0.145138)
(-0.897193 -0.118997 0.146127)
(-0.897193 -0.134882 0.138477)
(-0.897193 -0.134882 -0.141357)
(-0.897193 -0.118997 -0.149007)
(-0.0433462 0.0838605 -0.148018)
(0.0540602 0.097167 0.352353)
(0.00331532 0.0929546 0.352353)
(-0.0433461 0.0838606 0.968052)
(-0.0843338 0.0709963 0.968052)
(-0.118137 0.0554056 0.968052)
(-0.147508 0.0349271 1.17328)
(-0.167627 0.0046288 1.17328)
(-0.167924 0.00118834 1.17328)
(-0.162135 -0.00696247 1.17328)
(-0.149545 -0.00914865 1.17328)
(-0.122296 -0.00767416 1.17328)
(-0.121656 -0.0075896 0.762819)
(-0.15989 -0.00767595 0.454969)
(-0.086762 -0.00151254 0.460874)
(-0.086762 -0.00151254 0.484706)
(-0.107711 -0.00546946 0.57741)
(-0.162135 -0.00696257 -1.17616)
(-0.149546 -0.00914875 -1.17616)
(-0.122297 -0.00767426 -1.17616)
(-0.121656 -0.00758967 -0.765699)
(-0.15989 -0.00767599 -0.457849)
(-0.0867523 -0.00151055 -0.463754)
(-0.0867523 -0.00151055 -0.487586)
(-0.107705 -0.0054684 -0.58029)
(0.0540602 0.0971669 -0.355233)
(0.00331525 0.0929546 -0.355233)
(-0.0433463 0.0838605 -0.970932)
(-0.084334 0.0709962 -0.970932)
(-0.118137 0.0554055 -0.970932)
(-0.147509 0.034927 -1.17616)
(-0.167627 0.0046287 -1.17616)
(-0.167925 0.00118823 -1.17616)
(0.48082 0.00549674 0.465553)
(0.48082 -0.000499821 0.466281)
(0.48082 -0.00614788 0.468424)
(0.48082 -0.0111192 0.471855)
(0.48082 -0.0151249 0.476376)
(0.48082 -0.0179321 0.481725)
(0.48082 -0.0193777 0.48759)
(0.48082 -0.0193777 0.493631)
(0.48082 -0.0179321 0.499496)
(0.48082 -0.0151249 0.504845)
(0.48082 -0.0111192 0.509366)
(0.48082 -0.00614788 0.512797)
(0.48082 -0.000499819 0.514939)
(0.48082 0.00549674 0.515668)
(0.48082 0.0114933 0.514939)
(0.48082 0.0171414 0.512797)
(0.48082 0.0221127 0.509366)
(0.48082 0.0261184 0.504845)
(0.48082 0.0289256 0.481725)
(0.48082 0.0261184 0.476376)
(0.48082 0.0221127 0.471855)
(0.48082 0.0171414 0.468424)
(0.48082 0.0114933 0.466281)
(0.390059 0.0135405 1.33747)
(0.0696026 0.0756527 1.66584)
(-0.0434271 0.0605872 1.66584)
(-0.0707334 0.0302748 1.99422)
(-0.0842829 0.0193958 1.99422)
(-0.0958314 0.0365454 1.66584)
(-0.0934817 0.00570346 1.99422)
(-0.0943275 0.00217781 1.99422)
(-0.0943898 0.000378188 1.99422)
(-0.119929 0.0434819 1.33747)
(-0.105764 0.0494979 1.37852)
(-0.0595843 0.0646932 1.47429)
(-0.104769 0.045694 1.44693)
(-0.106288 0.0426338 1.47885)
(-0.0936888 -0.00246631 1.99422)
(-0.0932028 -0.00305595 1.99422)
(-0.0922229 -0.00373157 1.99422)
(-0.0888733 -0.00496398 1.99422)
(-0.0843851 -0.00567211 1.99422)
(-0.0588118 -0.00384033 1.99422)
(-0.0936891 -0.00246649 -1.9971)
(-0.0932031 -0.00305613 -1.9971)
(-0.0922232 -0.00373174 -1.9971)
(-0.0888736 -0.00496416 -1.9971)
(-0.0843854 -0.00567229 -1.9971)
(-0.0588121 -0.00384051 -1.9971)
(-0.0143802 0.0054967 -0.468433)
(-0.0143802 -0.000499862 -0.469162)
(-0.0143802 -0.00614792 -0.471304)
(0.48082 0.0054967 -0.468433)
(0.48082 -0.000499862 -0.469162)
(0.48082 -0.00614792 -0.471304)
(0.48082 -0.0111192 -0.474735)
(-0.0143802 -0.0111192 -0.474735)
(0.48082 -0.0151249 -0.479257)
(-0.0143802 -0.0151249 -0.479257)
(0.48082 -0.0179321 -0.484605)
(-0.0143802 -0.0179321 -0.484605)
(0.48082 -0.0193777 -0.49047)
(-0.0143802 -0.0193777 -0.49047)
(0.48082 -0.0193777 -0.496511)
(-0.0143802 -0.0193777 -0.496511)
(0.48082 -0.0179321 -0.502376)
(-0.0143802 -0.0179321 -0.502376)
(0.48082 -0.0151249 -0.507725)
(-0.0143802 -0.0151249 -0.507725)
(0.48082 -0.0111192 -0.512246)
(-0.0143802 -0.0111192 -0.512246)
(-0.0143802 -0.00614793 -0.515678)
(0.48082 -0.00614793 -0.515678)
(-0.0143802 -0.000499864 -0.51782)
(0.48082 -0.000499864 -0.51782)
(-0.0143802 0.0054967 -0.518548)
(0.48082 0.0054967 -0.518548)
(-0.0143802 0.00811509 -0.518411)
(-0.0143802 0.0107048 -0.518)
(-0.0143802 0.00811509 -0.468571)
(-0.0143802 0.0107048 -0.468981)
(0.0696023 0.0756525 -1.66872)
(-0.0434274 0.060587 -1.66872)
(-0.0707338 0.0302747 -1.9971)
(-0.0842833 0.0193956 -1.9971)
(-0.0958317 0.0365453 -1.66872)
(-0.0934821 0.00570329 -1.9971)
(-0.0943278 0.00217763 -1.9971)
(-0.0943901 0.000378013 -1.9971)
(-0.119929 0.0434818 -1.34035)
(-0.105764 0.0494978 -1.3814)
(-0.0595846 0.0646931 -1.47717)
(-0.104769 0.0456939 -1.44981)
(-0.106288 0.0426336 -1.48173)
(0.390058 0.0135404 -1.34035)
(0.48082 0.0114933 -0.51782)
(0.48082 0.0171413 -0.515678)
(0.48082 0.0221126 -0.512246)
(0.48082 0.0261183 -0.507725)
(0.48082 0.0289255 -0.484605)
(0.48082 0.0261183 -0.479257)
(0.48082 0.0221126 -0.474735)
(0.48082 0.0171413 -0.471304)
(0.48082 0.0114933 -0.469162)
(-1.29244 -0.0200064 -0.00671252)
(-1.29297 -0.0234507 -0.00593522)
(-0.992367 0.064002 -0.138174)
(-1.19647 0.0244059 -0.0779622)
(-1.26738 -0.00124126 -0.0390232)
(-0.984378 0.077817 -0.131494)
(-1.03107 0.0680903 -0.125036)
(-1.29297 -0.0285453 -0.00593522)
(-1.19558 -0.0410882 -0.0850214)
(-1.26948 -0.0471513 -0.0387692)
(-1.28233 -0.0401295 -0.0263778)
(-1.22198 -0.0129262 -0.0723549)
(-1.09493 0.0782566 -0.0135146)
(-1.19449 0.0492386 -0.0100044)
(-1.22384 0.0357993 0.0203202)
(-1.22403 0.034531 -0.0301203)
(-1.29244 -0.0319896 -0.00671252)
(-1.19645 -0.0861127 -0.0702614)
(-1.19634 -0.089806 -0.0653416)
(-1.26738 -0.0507547 -0.0390232)
(-1.26734 -0.0574538 -0.0330163)
(-1.09488 -0.130446 -0.0014399)
(-1.19446 -0.101438 -0.00143989)
(-1.22393 -0.0872012 -0.0266683)
(-1.22393 -0.0872012 0.0237885)
(-1.28075 -0.0518736 -0.0119486)
(-1.29297 -0.0285453 0.00305544)
(-0.992367 -0.115998 0.135294)
(-1.19647 -0.0764019 0.0750824)
(-1.26948 -0.0471513 0.0358895)
(-1.26738 -0.0507547 0.0361434)
(-0.984378 -0.129813 0.128614)
(-1.03107 -0.120086 0.122156)
(-1.29297 -0.0234507 0.00305544)
(-1.19558 -0.0410881 0.0821416)
(-1.22198 -0.0129262 0.0694751)
(-1.28233 -0.0118665 0.023498)
(-1.19645 0.0341167 0.0673817)
(-1.19634 0.0378099 0.0624618)
(-1.26738 -0.00124126 0.0361434)
(-1.26734 0.00545777 0.0301366)
(1.78188 0.0100033 0.468261)
(1.78188 0.00549674 0.467811)
(1.78188 0.014332 0.469593)
(1.78188 0.0258085 0.480255)
(1.78188 0.0228495 0.475823)
(1.78188 -0.0167181 0.485482)
(1.78188 -0.0150241 0.480676)
(1.78188 -0.0123048 0.476366)
(1.78188 0.000432623 0.468381)
(-0.0144 0.0081222 -0.470843)
(-0.0144 0.0054967 -0.470692)
(-0.0144 0.0107128 -0.471296)
(1.78188 0.0054967 -0.470692)
(1.78188 0.0100029 -0.471141)
(1.78188 0.0143313 -0.472473)
(1.78188 0.027557 -0.487734)
(1.78188 0.0235389 -0.507429)
(1.78188 0.019917 -0.51115)
(1.78188 0.015547 -0.513955)
(1.78188 0.0106557 -0.515698)
(1.78188 0.0054967 -0.51629)
(1.78188 0.0227602 -0.478599)
(1.78188 0.0256822 -0.482892)
(-0.0144 0.0107128 -0.515685)
(-0.0144 0.0081222 -0.516138)
(-0.0144 0.0054967 -0.516289)
(1.78188 4.05377e-05 -0.515627)
(1.78188 -0.00509853 -0.513678)
(1.78188 -0.00962184 -0.510556)
(1.78188 -0.0132665 -0.506442)
(1.78188 -0.0158207 -0.501575)
(1.78188 -0.0171361 -0.496239)
(1.78188 -0.0171361 -0.490743)
(1.78188 -0.0158207 -0.485406)
(1.78188 -0.0132665 -0.480539)
(1.78188 -0.00962184 -0.476425)
(1.78188 -0.00509853 -0.473303)
(1.78188 4.05397e-05 -0.471354)
(-0.0144 4.05377e-05 -0.515627)
(-0.0144 -0.00509853 -0.513678)
(-0.0144 -0.00962184 -0.510556)
(-0.0144 -0.0132665 -0.506442)
(-0.0144 -0.0158207 -0.501575)
(-0.0144 -0.0171361 -0.496239)
(-0.0144 -0.0171361 -0.490742)
(-0.0144 -0.0158207 -0.485406)
(-0.0144 -0.0132665 -0.480539)
(-0.0144 -0.00962184 -0.476425)
(-0.0144 -0.00509853 -0.473303)
(-0.0144 4.05397e-05 -0.471354)
(1.78189 0.503622 -0.0124826)
(1.78189 0.503085 -0.0130195)
(1.78189 0.503085 0.0101391)
(1.78189 0.503622 0.00960226)
(1.78189 0.0103355 -0.483685)
(1.78189 0.00979863 -0.483148)
(1.4838 0.51614 -0.00291521)
(1.36789 0.209073 -0.272615)
(1.362 0.21064 -0.274181)
(1.35588 0.215452 -0.278994)
(1.35978 0.21848 -0.282021)
(1.36471 0.421208 -0.0825311)
(1.36471 0.220099 -0.28364)
(1.369 0.479078 -0.0266771)
(1.35991 0.478063 -0.0225459)
(1.3565 0.188959 -0.301529)
(1.35719 0.448932 -0.040344)
(1.36127 0.463715 -0.0216058)
(1.35745 0.466243 -0.022656)
(1.36059 0.471676 -0.0294716)
(1.35698 0.47057 -0.0268072)
(1.35762 0.462865 -0.0258063)
(1.35649 0.481655 -0.00885786)
(1.35592 0.067199 -0.425057)
(1.35605 0.0686109 -0.426636)
(1.35628 0.0810901 -0.414881)
(1.357 0.0818514 -0.415551)
(1.3573 0.0942802 -0.403581)
(1.35584 0.104086 -0.388774)
(1.35663 0.106057 -0.390696)
(1.35755 0.106802 -0.391391)
(1.35582 0.4819 -0.0119542)
(1.35736 0.0698755 -0.428067)
(1.35585 0.0863645 -0.407804)
(1.35582 0.138444 -0.355309)
(1.35663 0.143034 -0.353719)
(1.3568 0.143205 -0.353855)
(1.35756 0.143789 -0.354428)
(1.35597 0.0424964 -0.449527)
(1.35731 0.0424668 -0.446628)
(1.35591 0.106547 -0.388094)
(1.3563 0.027443 -0.468572)
(1.35597 0.0432654 -0.448753)
(1.35581 0.0622766 -0.431256)
(1.35582 0.025375 -0.467757)
(1.35617 0.058023 -0.437635)
(1.37291 0.496468 -0.0196366)
(1.35898 0.500206 -0.0158991)
(1.35628 0.502117 -0.0139879)
(1.35622 0.504513 -0.0115924)
(1.35876 0.506398 -0.00970673)
(1.36329 0.508084 -0.00802056)
(1.36955 0.509603 -0.00650166)
(1.38739 0.512259 -0.0038458)
(1.35581 0.503315 -0.0127897)
(1.42377 -0.00140931 0.468846)
(1.35581 -0.0111192 0.509235)
(1.35581 -0.00614788 0.512666)
(1.35581 -0.0151249 0.504713)
(1.35581 -0.0179321 0.499365)
(1.35581 -0.000499819 0.514808)
(1.35581 -0.0193777 0.493499)
(1.35581 0.00549674 0.515536)
(1.35581 -0.0193777 0.487459)
(1.35581 0.0111613 0.514888)
(1.35581 -0.0179321 0.481594)
(1.35581 0.0165326 0.512975)
(1.35581 -0.0151249 0.476245)
(1.35581 -0.0111192 0.471724)
(1.35581 -0.00614788 0.468292)
(1.35581 -0.000499821 0.46615)
(1.35581 0.0300415 0.49552)
(1.35581 0.00549674 0.465422)
(1.35581 0.0305457 0.489841)
(1.35581 0.0297531 0.484195)
(1.35581 0.0157626 0.467622)
(1.35581 0.0277045 0.478874)
(1.78188 -0.00614788 0.512666)
(1.78188 -0.0111192 0.509235)
(1.78188 -0.0151249 0.504713)
(1.78188 -0.0179321 0.499365)
(1.78188 -0.000499819 0.514808)
(1.78188 0.00549674 0.515536)
(1.78188 -0.0193777 0.487459)
(1.78188 0.0116792 0.514762)
(1.78188 -0.0179321 0.481594)
(1.78188 -0.0151249 0.476245)
(1.78188 -0.0111192 0.471724)
(1.78188 -0.00614788 0.468292)
(1.78188 0.0292481 0.498462)
(1.78188 -0.000499821 0.46615)
(1.78188 0.0304835 0.492355)
(1.78188 0.00549674 0.465422)
(1.78188 0.0301739 0.486132)
(1.78188 0.0106208 0.465952)
(1.78188 0.0155283 0.467518)
(1.78188 0.0283384 0.480178)
(1.78188 0.0250905 0.47486)
(1.37759 0.162186 0.313127)
(1.35755 0.43402 0.0612921)
(1.35585 0.442973 0.0469323)
(1.35716 0.45286 0.0335742)
(1.35756 0.465172 0.0207061)
(1.36119 0.465682 0.0168127)
(1.3574 0.468221 0.0178735)
(1.3651 0.0260302 0.454111)
(1.35782 0.117459 0.368087)
(1.37306 0.12674 0.377687)
(1.36225 0.13694 0.362486)
(1.35681 0.134295 0.359903)
(1.35581 0.150499 0.340164)
(1.35593 0.145566 0.346314)
(1.4838 0.51614 3.49101e-05)
(1.357 0.184273 0.310249)
(1.35763 0.0234789 0.462307)
(1.35595 0.0225018 0.466751)
(1.3581 0.0356244 0.44959)
(1.35595 0.0460394 0.445902)
(1.35714 0.0680808 0.418377)
(1.35627 0.108677 0.384386)
(1.35583 0.161963 0.328103)
(1.35581 0.185857 0.304923)
(1.35581 0.194849 0.295933)
(1.35641 0.0458331 0.441966)
(1.35592 0.0913784 0.400417)
(1.3567 0.0642898 0.429722)
(1.356 0.0908563 0.398142)
(1.35591 0.0560191 0.435702)
(1.35585 0.0634575 0.42788)
(1.36789 0.213754 0.265054)
(1.362 0.215321 0.26662)
(1.35588 0.220133 0.271433)
(1.35978 0.22316 0.27446)
(1.36471 0.22478 0.276079)
(1.35589 0.487894 0.00167311)
(1.35582 0.48817 0.00283427)
(1.35582 0.489009 0.00190981)
(1.38739 0.512259 0.00096551)
(1.37291 0.496468 0.0167563)
(1.36955 0.509603 0.00362138)
(1.36329 0.508084 0.00514027)
(1.35581 0.503315 0.00990941)
(1.35622 0.504513 0.00871209)
(1.35876 0.506398 0.00682644)
(1.35898 0.500206 0.0130188)
(1.35709 0.501325 0.0119)
(0.363498 0.0359914 0.14712)
(-0.00799771 0.0143746 0.14712)
(0.328898 0.0201921 0.14712)
(-0.00798015 0.0143777 0.14712)
(-0.00796236 0.0143808 0.14712)
(-0.00337642 0.0151746 -0.15)
(0.323557 0.0208182 -0.15)
(0.363498 0.0359914 -0.15)
(0.379404 0.0305517 0.490939)
(-0.0143802 0.0132375 -0.472046)
(-0.0143802 0.0132375 -0.514935)
(0.182943 0.0292345 -0.485467)
(0.182943 0.0292345 -0.501514)
(0.379404 0.0305517 -0.493819)
(0.186156 0.00550912 0.467804)
(0.186156 0.0108509 0.468439)
(0.186156 0.0158954 0.470307)
(0.186156 0.0203616 0.473306)
(0.186156 0.0240009 0.477267)
(0.186156 0.0266108 0.481971)
(0.186156 0.0280459 0.487155)
(0.186156 0.0282264 0.492532)
(0.186156 0.0271422 0.497801)
(0.186156 0.0248536 0.502669)
(0.186156 0.021488 0.506866)
(0.186156 0.0172329 0.510157)
(0.186156 -0.00253285 0.469269)
(0.186156 -0.00622706 0.471057)
(0.186156 0.00142192 0.468173)
(1.78188 -0.0173022 0.490567)
(1.59 0.470932 -0.00143916)
(1.45973 0.466799 -0.00144016)
(-0.0504422 0.05985 -0.00144)
(-0.0504422 0.05985 0.14712)
(-0.0515214 0.0509618 0.14712)
(-0.0515214 0.0509618 -0.00144)
(-0.0472673 0.0682217 -0.00144)
(-0.0472673 0.0682217 0.14712)
(-0.0421811 0.0755902 -0.00144)
(-0.0421811 0.0755902 0.14712)
(-0.0354793 0.0815275 -0.00144)
(-0.0354793 0.0815275 0.14712)
(-0.0275515 0.0856883 -0.00144)
(-0.0275514 0.0856883 0.14712)
(-0.0188582 0.0878311 -0.00144)
(-0.0188581 0.0878311 0.14712)
(-0.0099047 0.0878311 -0.00144)
(-0.00990468 0.0878311 0.14712)
(-0.0012114 0.0856883 -0.00144)
(-0.00121139 0.0856883 0.14712)
(0.00671649 0.0815275 -0.00144)
(0.00671651 0.0815275 0.14712)
(0.0134183 0.0755902 -0.00144)
(0.0134183 0.0755902 0.14712)
(0.0185044 0.0682217 -0.00144)
(0.0185044 0.0682217 0.14712)
(0.0216793 0.05985 -0.00144)
(0.0216794 0.05985 0.14712)
(0.0227586 0.0509618 -0.00144)
(0.0227586 0.0509618 0.14712)
(0.0216793 0.0420737 -0.00144)
(0.0185044 0.033702 -0.00144)
(0.0134183 0.0263335 -0.00144)
(0.00671649 0.0203962 -0.00144)
(-0.0012114 0.0162353 -0.00144)
(-0.0188582 0.0140926 -0.00144)
(-0.0275515 0.0162353 -0.00144)
(-0.0354793 0.0203962 -0.00144)
(-0.0421811 0.0263335 -0.00144)
(-0.0472673 0.033702 -0.00144)
(-0.0504422 0.0420737 -0.00144)
(0.021757 0.0423947 0.14712)
(0.0188062 0.0342896 0.14712)
(0.0140653 0.0270838 0.14712)
(0.00779012 0.0211658 0.14712)
(0.000319071 0.016855 0.14712)
(-0.0172138 0.01393 0.14712)
(-0.0262551 0.015771 0.14712)
(-0.0345635 0.0197839 0.14712)
(-0.0416264 0.0257212 0.14712)
(-0.0470077 0.0332162 0.14712)
(-0.0503753 0.0418065 0.14712)
(-0.0144 0.013234 0.514443)
(-0.0144 0.00811388 0.515531)
(-0.0144 0.0107024 0.515121)
(-0.0144 0.013234 0.466778)
(-0.0144 0.00811388 0.46569)
(-0.0144 0.0107024 0.4661)
(0.520001 0.0947392 -0.0346666)
(0.446136 0.097802 -0.110384)
(0.446136 0.097802 0.107504)
(0.519419 0.0921848 -0.107094)
(0.589621 0.0753333 -0.0972221)
(0.519419 0.0921848 0.104213)
(0.591383 0.0783084 -0.0316051)
(0.726701 0.00534319 -0.0183641)
(0.663335 0.0437948 -0.0787471)
(0.660283 0.0485098 -0.026171)
(0.55396 0.0885874 0.0333308)
(0.589621 0.0753333 0.094342)
(0.626548 0.0648287 0.0285965)
(0.663335 0.0437948 0.075867)
(0.627442 0.0631124 -0.0592522)
(0.758997 -0.0212882 0.0117074)
(0.790637 -0.0511913 0.0202249)
(0.759319 -0.021906 -0.0267844)
(0.790637 -0.0511913 -0.0231051)
(0.77489 -0.0358135 -0.011351)
(-0.897193 0.097802 0.107504)
(-0.897193 0.097802 -0.110384)
(0.520151 0.0539357 -0.145069)
(0.446136 0.058186 -0.15)
(0.446136 0.0676676 -0.14885)
(0.446136 0.0764234 -0.145553)
(0.446136 0.0902873 -0.133598)
(0.446136 0.0970294 -0.118174)
(0.521416 0.0650052 -0.142045)
(0.446136 0.084074 -0.14037)
(0.52163 0.083177 -0.128044)
(0.593459 0.0652476 -0.11398)
(0.661921 0.0252992 -0.101301)
(0.665936 0.0172968 -0.102562)
(0.591169 0.0411848 -0.130276)
(0.661993 0.0367254 -0.0916436)
(0.729742 -0.0128184 -0.0676237)
(0.727596 -0.00216304 -0.0612729)
(0.727854 0.000406535 -0.0579755)
(0.538347 0.0816884 -0.123286)
(0.51682 -0.150042 -0.00144004)
(0.446136 -0.149798 -0.110384)
(0.526936 -0.144923 -0.106069)
(0.526936 -0.144923 0.103189)
(0.446136 -0.149798 0.107504)
(0.586612 -0.140304 -0.00144005)
(0.605333 -0.130299 -0.0931251)
(0.605333 -0.130299 0.090245)
(0.655512 -0.120582 -0.00144005)
(0.689352 -0.102725 -0.0687188)
(0.689352 -0.102725 0.0658387)
(0.72352 -0.0908783 -0.00144006)
(0.740575 -0.0793131 -0.0479963)
(0.740575 -0.0793131 0.0451162)
(0.757504 -0.0716286 0.0178204)
(0.757504 -0.0716286 -0.0207006)
(0.520151 0.0539357 0.142189)
(0.446136 0.0676676 0.14597)
(0.446136 0.058186 0.14712)
(0.446136 0.0764234 0.142673)
(0.446136 0.0902873 0.130718)
(0.446136 0.0970294 0.115294)
(0.521416 0.0650052 0.139165)
(0.446136 0.084074 0.13749)
(0.52163 0.083177 0.125164)
(0.593459 0.0652476 0.1111)
(0.661921 0.0252992 0.098421)
(0.591169 0.0411848 0.127396)
(0.665936 0.0172968 0.099682)
(0.661993 0.0367254 0.0887635)
(0.729742 -0.0128184 0.0647436)
(0.727596 -0.00216303 0.0583927)
(0.727854 0.00040654 0.0550954)
(0.538347 0.0816891 0.120405)
(0.0696082 0.0973565 0.113429)
(-0.897193 0.0968087 0.116319)
(0.0466116 0.0968975 0.11592)
(0.00738428 0.0935036 0.125451)
(-0.897193 0.0938788 0.124693)
(-0.897193 0.089159 0.132204)
(0.115891 0.0950185 0.122092)
(-0.0537644 0.081079 0.139836)
(-0.897193 0.0753747 0.143197)
(-0.0859215 0.0703831 0.145196)
(0.203473 0.0804296 0.140286)
(-0.112977 0.058186 0.14712)
(-0.897193 0.058186 0.14712)
(0.291066 0.058186 0.14712)
(-0.112977 0.058186 -0.15)
(-0.897193 0.058186 -0.15)
(-0.0859215 0.0703831 -0.148076)
(-0.897193 0.0753747 -0.146077)
(0.291066 0.058186 -0.15)
(-0.0537644 0.081079 -0.142716)
(-0.897193 0.089159 -0.135084)
(0.203473 0.0804295 -0.143166)
(0.00738426 0.0935036 -0.128331)
(-0.897193 0.0938788 -0.127573)
(0.0696082 0.0973565 -0.116309)
(-0.897193 0.0968087 -0.119199)
(0.0466116 0.0968975 -0.118801)
(0.115891 0.0950184 -0.124972)
(0.446136 -6.55671e-09 -0.15)
(0.5188 -0.00359633 -0.147753)
(0.525065 -0.107438 -0.144097)
(0.446136 -0.110182 -0.15)
(0.589324 -0.00930873 -0.133628)
(0.60145 -0.0992048 -0.126387)
(0.657967 -0.0191391 -0.107938)
(0.724985 -0.0330968 -0.0709926)
(0.628442 -0.0549146 -0.12004)
(0.682988 -0.0837029 -0.0930408)
(0.70274 -0.0536219 -0.0841281)
(0.737557 -0.0690533 -0.0615281)
(0.757679 -0.052219 -0.0483568)
(0.774364 -0.0460043 -0.0360708)
(0.519107 -0.143035 -0.118063)
(0.446136 -0.148656 -0.119834)
(0.446136 -0.145343 -0.12864)
(0.446136 -0.140102 -0.13635)
(0.519348 -0.128943 -0.136347)
(0.446136 -0.133255 -0.142585)
(0.446136 -0.125188 -0.147047)
(0.519407 -0.118882 -0.142071)
(0.446136 -0.117836 -0.149254)
(0.59026 -0.109861 -0.126365)
(0.658598 -0.10156 -0.0968056)
(0.658927 -0.0954375 -0.101173)
(0.725342 -0.0790974 -0.0640808)
(0.725641 -0.0758137 -0.0666893)
(0.526123 -0.132558 -0.131481)
(0.547637 -0.128298 -0.128935)
(0.558736 -0.134619 -0.11679)
(0.590051 -0.118277 -0.120991)
(0.603152 -0.119161 -0.113825)
(0.62177 -0.113592 -0.10895)
(0.519107 -0.143035 0.115183)
(0.446136 -0.148656 0.116954)
(0.446136 -0.145343 0.12576)
(0.446136 -0.140102 0.13347)
(0.519348 -0.128943 0.133467)
(0.446136 -0.133255 0.139705)
(0.446136 -0.125188 0.144167)
(0.519407 -0.118882 0.139191)
(0.446136 -0.117836 0.146374)
(0.446136 -0.110182 0.14712)
(0.525065 -0.107438 0.141217)
(0.59026 -0.109861 0.123484)
(0.60145 -0.0992048 0.123507)
(0.658598 -0.10156 0.0939255)
(0.682988 -0.0837029 0.0901607)
(0.658927 -0.0954375 0.0982931)
(0.725342 -0.0790974 0.0612007)
(0.737557 -0.0690533 0.058648)
(0.725641 -0.0758137 0.0638092)
(0.526123 -0.132559 0.1286)
(0.547637 -0.128299 0.126054)
(0.558736 -0.134619 0.113909)
(0.590051 -0.118276 0.11811)
(0.603152 -0.119163 0.110943)
(0.62177 -0.113593 0.106069)
(-0.897193 -0.149798 -0.110384)
(-0.897193 -0.149798 0.107504)
(0.446136 6.43082e-09 0.14712)
(0.518279 -0.0547227 0.14482)
(0.588543 -0.0545481 0.130669)
(0.657185 -0.0538957 0.104978)
(0.724464 -0.052774 0.0680596)
(0.553413 -0.00290603 0.139372)
(0.623022 -0.0111141 0.119581)
(0.693703 -0.0243567 0.086825)
(0.758024 -0.0410013 0.0454828)
(0.75802 -0.0573481 0.0450303)
(0.774181 -0.0515613 0.0331939)
(0.408427 0.0194157 0.14712)
(-0.165598 -0.00519325 0.14712)
(-0.166427 -0.00443792 0.14712)
(-0.897193 -0.110182 0.14712)
(-0.166967 -0.00358271 0.14712)
(-0.163766 -0.00627419 0.14712)
(-0.167476 -0.00222285 0.14712)
(-0.161367 -0.00722921 0.14712)
(-0.1679 0.000548359 0.14712)
(-0.167818 0.00333477 0.14712)
(-0.166549 0.00878418 0.14712)
(-0.162983 0.0166559 0.14712)
(-0.156218 0.0260274 0.14712)
(-0.137231 0.0432565 0.14712)
(-0.0868577 -0.00153221 0.14712)
(-0.137578 -0.00910218 0.14712)
(0.100762 0.0272263 0.14712)
(-0.00794488 0.0143838 0.14712)
(0.210969 0.0287909 0.14712)
(-0.15504 -0.00867067 0.14712)
(0.15675 0.0895607 0.14712)
(0.0651902 0.0973535 0.14712)
(-0.0138208 0.0902207 0.14712)
(-0.064595 0.0778552 0.14712)
(0.163017 0.0884843 0.145138)
(-0.0206203 0.0889449 0.145138)
(-0.0646537 0.0778367 0.145138)
(-0.0843339 0.0709962 0.145138)
(-0.897193 -0.127371 0.143197)
(-0.897193 -0.141155 0.132204)
(-0.897193 -0.145875 0.124693)
(-0.897193 -0.148805 0.116319)
(-0.897193 -0.148805 -0.119199)
(-0.897193 -0.145875 -0.127573)
(-0.897193 -0.141155 -0.135084)
(-0.897193 -0.127371 -0.146077)
(-0.897193 -0.110182 -0.15)
(-0.137231 0.0432564 -0.15)
(-0.156218 0.0260274 -0.15)
(-0.162983 0.0166559 -0.15)
(-0.166549 0.00878417 -0.15)
(-0.167818 0.00333475 -0.15)
(-0.1679 0.000548346 -0.15)
(-0.167476 -0.00222286 -0.15)
(-0.166968 -0.00358272 -0.15)
(-0.166428 -0.00443793 -0.15)
(-0.165598 -0.00519327 -0.15)
(-0.164692 -0.00579243 -0.15)
(-0.161861 -0.00706101 -0.15)
(-0.158014 -0.00814193 -0.15)
(-0.122132 -0.00765266 -0.15)
(0.0666496 0.0246235 -0.15)
(0.200148 0.0290289 -0.15)
(-0.149358 -0.00915711 -0.15)
(0.408427 0.0194157 -0.15)
(0.15675 0.0895607 -0.15)
(0.0651902 0.0973535 -0.15)
(-0.0138209 0.0902207 -0.15)
(-0.064595 0.0778552 -0.15)
(0.163017 0.0884843 -0.148018)
(-0.0206203 0.0889448 -0.148018)
(-0.0646537 0.0778367 -0.148018)
(-0.0843339 0.0709962 -0.148018)
(0.446136 2.03767e-08 0.466164)
(0.435477 0.00549674 0.465553)
(0.418688 0.0146205 0.352353)
(0.412828 0.0174426 0.468584)
(0.400597 0.022676 0.47237)
(0.379485 0.030523 0.489368)
(0.379946 0.0303608 0.487506)
(0.381227 0.0299081 0.484959)
(0.382981 0.0292844 0.482736)
(0.385731 0.0282971 0.480218)
(0.39032 0.0266188 0.47713)
(0.446136 2.25139e-08 0.515057)
(0.435477 0.00549674 0.515668)
(0.446136 5.12859e-08 1.17328)
(0.412026 0.0178109 0.512433)
(0.389238 0.0270181 0.762819)
(0.400686 0.0226403 0.508885)
(0.391029 0.0263559 0.504494)
(0.384166 0.0288604 0.499666)
(0.381532 0.0298001 0.49671)
(0.380303 0.0302348 0.494596)
(0.3796 0.0304827 0.492497)
(0.418688 0.0146205 0.968052)
(0.408439 0.0194105 1.17328)
(0.107611 0.0957485 0.352353)
(-0.0433462 0.0838606 0.352353)
(-0.0843339 0.0709962 0.352353)
(-0.143639 0.0382675 0.352353)
(-0.160163 0.0209943 0.352353)
(0.163017 0.0884844 0.968052)
(0.133156 0.0930737 1.17328)
(0.107611 0.0957485 0.968052)
(0.0521793 0.09711 1.17328)
(-0.160163 0.0209943 0.762819)
(0.00331537 0.0929546 0.968052)
(-0.0260365 0.0878495 1.17328)
(-0.097979 0.0653843 1.17328)
(-0.12748 0.0498799 1.17328)
(-0.160163 0.0209943 0.968052)
(-0.160108 0.0210707 1.17328)
(-0.165644 0.0112555 1.17328)
(-0.167476 0.00539752 0.968052)
(-0.167476 -0.0022228 1.17328)
(-0.0143801 0.0132376 0.466779)
(-0.00201995 0.0154057 0.467596)
(0.104607 0.0274434 0.478519)
(0.126014 0.0284059 0.352353)
(0.191857 0.0291541 0.482353)
(0.204072 0.0289524 0.352353)
(0.307763 0.0225459 0.472248)
(0.422798 0.00549674 0.465553)
(-0.0143801 0.0132376 0.514442)
(-0.00201995 0.0154057 0.513625)
(-0.1633 -0.00649044 0.968052)
(-0.166969 -0.00357987 1.17328)
(-0.166459 -0.00439921 1.17328)
(-0.165666 -0.00514031 1.17328)
(-0.164766 -0.00574946 1.17328)
(-0.158056 -0.00813262 1.17328)
(0.104607 0.0274435 0.502702)
(-0.150154 -0.00911857 0.968052)
(0.126014 0.0284059 0.762819)
(0.191857 0.0291541 0.498868)
(0.307763 0.0225459 0.508973)
(0.0480058 0.02264 0.968052)
(0.0664191 0.0246015 1.17328)
(0.277291 0.0253357 0.762819)
(0.422798 0.00549674 0.515668)
(-0.144465 -0.00925896 0.249736)
(-0.121656 -0.00758962 0.352353)
(-0.157017 -0.00834609 0.198428)
(-0.1457 -0.00925205 0.249736)
(-0.157736 -0.00820161 0.198428)
(-0.164476 -0.00591222 0.301045)
(-0.163483 -0.0064077 0.172774)
(-0.0143802 0.0132375 -0.469659)
(-0.0144 0.0132339 -0.472044)
(-0.0143802 0.0132375 -0.517322)
(-0.0144 0.0132339 -0.514937)
(0.0480057 0.0226399 -0.355233)
(0.0889612 0.0264684 -0.479777)
(0.268814 0.0259783 -0.479056)
(0.345994 0.0180458 -0.471802)
(0.422798 0.0054967 -0.468433)
(0.446136 -2.05026e-08 -0.469044)
(-0.163301 -0.00649053 -0.970932)
(-0.167476 -0.00222291 -1.17616)
(-0.166969 -0.00357997 -1.17616)
(-0.16646 -0.00439931 -1.17616)
(-0.165667 -0.00514042 -1.17616)
(-0.164767 -0.00574956 -1.17616)
(-0.158056 -0.00813272 -1.17616)
(0.0480056 0.0226399 -0.765699)
(0.0889612 0.0264684 -0.507204)
(-0.150154 -0.00911866 -0.970932)
(0.268814 0.0259783 -0.507925)
(0.0480056 0.0226399 -0.970932)
(0.0664189 0.0246014 -1.17616)
(0.345994 0.0180458 -0.515179)
(0.446136 -2.26398e-08 -0.517937)
(0.422798 0.0054967 -0.518548)
(0.446136 -5.14118e-08 -1.17616)
(-0.144937 -0.00925768 -0.252616)
(-0.121656 -0.00758965 -0.355233)
(-0.15699 -0.00835117 -0.201308)
(-0.1457 -0.00925207 -0.252616)
(-0.157736 -0.00820163 -0.201308)
(-0.164476 -0.00591225 -0.303925)
(-0.163483 -0.00640772 -0.175654)
(0.107611 0.0957485 -0.355233)
(-0.0433462 0.0838605 -0.355233)
(-0.084334 0.0709962 -0.355233)
(-0.143639 0.0382675 -0.355233)
(-0.160163 0.0209943 -0.355233)
(0.163017 0.0884843 -0.970932)
(0.133155 0.0930736 -1.17616)
(0.107611 0.0957485 -0.970932)
(0.0521791 0.0971099 -1.17616)
(-0.160163 0.0209943 -0.765699)
(0.0033152 0.0929545 -0.970932)
(-0.0260367 0.0878493 -1.17616)
(-0.0979792 0.0653842 -1.17616)
(-0.12748 0.0498798 -1.17616)
(-0.160163 0.0209943 -0.970932)
(-0.160108 0.0210706 -1.17616)
(-0.165645 0.0112554 -1.17616)
(-0.167476 0.00539744 -0.970932)
(0.435477 0.0054967 -0.468433)
(0.418688 0.0146205 -0.355233)
(0.412828 0.0174426 -0.471464)
(0.400597 0.0226759 -0.47525)
(0.379485 0.030523 -0.492248)
(0.379946 0.0303607 -0.490386)
(0.381227 0.029908 -0.487839)
(0.382981 0.0292844 -0.485616)
(0.38573 0.0282971 -0.483098)
(0.39032 0.0266188 -0.480011)
(0.435477 0.0054967 -0.518548)
(0.412026 0.0178108 -0.515313)
(0.389238 0.0270181 -0.765699)
(0.400686 0.0226403 -0.511765)
(0.391029 0.0263558 -0.507374)
(0.384166 0.0288603 -0.502546)
(0.381532 0.0298001 -0.49959)
(0.380303 0.0302348 -0.497476)
(0.3796 0.0304827 -0.495378)
(0.418688 0.0146204 -0.970932)
(0.408439 0.0194104 -1.17616)
(0.48082 0.0289256 0.499496)
(0.48082 0.0303712 0.493631)
(0.48082 0.0303712 0.48759)
(0.292851 8.717e-08 1.99422)
(0.30417 0.0103005 1.83003)
(0.240735 0.0226979 1.99422)
(0.127422 0.0859629 1.33747)
(0.0769052 0.0900119 1.33747)
(0.02847 0.0886585 1.33747)
(-0.0167975 0.0823745 1.33747)
(0.241236 0.0430649 1.66584)
(0.134799 0.0518062 1.99422)
(0.155766 0.0646403 1.66584)
(0.0622434 0.0612949 1.99422)
(0.11206 0.0722496 1.66584)
(0.0291061 0.0674435 1.83003)
(0.0288941 0.0745151 1.66584)
(-0.00107412 0.056177 1.99422)
(-0.00915206 0.0692336 1.66584)
(-0.0363516 0.0548373 1.83003)
(-0.0503072 0.0412279 1.99422)
(-0.0726595 0.0494075 1.66584)
(-0.0986253 0.0208171 1.83003)
(-0.090979 0.0110212 1.99422)
(-0.11223 0.0229998 1.66584)
(-0.107018 0.00905454 1.83003)
(-0.0941205 -0.00140174 1.99422)
(-0.142244 0.0134279 1.41956)
(-0.139441 0.0273653 1.33747)
(-0.156647 0.0145434 1.25538)
(-0.131676 0.044216 1.21433)
(-0.107267 0.0562385 1.25538)
(-0.0575781 0.0720869 1.33747)
(-0.111334 0.0515121 1.29642)
(-0.092359 0.0587853 1.33747)
(-0.127332 0.0412773 1.29642)
(-0.0777299 0.0635713 1.36484)
(-0.101443 0.0527063 1.36484)
(-0.0873523 0.0587708 1.37852)
(-0.121136 0.0396633 1.37852)
(-0.0659968 0.0567193 1.58375)
(-0.0871538 0.0470255 1.58375)
(-0.0777096 0.0539877 1.5427)
(-0.153093 0.0273824 1.19381)
(0.0450988 0.0877492 1.38308)
(-0.134864 0.038728 1.25538)
(0.00538948 0.0831092 1.40588)
(0.0297454 0.0858093 1.40588)
(-0.105135 0.0469552 1.42412)
(0.0435793 0.0782055 1.60199)
(0.00751307 0.0762523 1.57007)
(0.0298595 0.0787296 1.57007)
(-0.0175765 0.0715922 1.57463)
(0.00225383 0.0730688 1.6248)
(0.143279 0.0797886 1.415)
(0.0599609 0.083368 1.49254)
(-0.163538 0.0138801 1.18355)
(0.164448 0.0715816 1.49862)
(0.133984 0.0731753 1.57919)
(-0.000312717 0.07886 1.48341)
(-0.00201996 0.0122054 0.466468)
(-0.00201996 0.00888212 0.465783)
(-0.148938 -0.00601097 1.33747)
(-0.136762 -0.00844495 1.33747)
(0.046759 0.0209676 1.33747)